/*---------------------------------------------------------------------------*\
| =========                 |                                                 |
| \\      /  F ield         | OpenFOAM: The Open Source CFD Toolbox           |
|  \\    /   O peration     | Version:  1.0                                   |
|   \\  /    A nd           | Web:      http://www.openfoam.org               |
|    \\/     M anipulation  |                                                 |
\*---------------------------------------------------------------------------*/
FoamFile
{
version                         2.0;
format                          ascii;
class                           dictionary;
object                          binaryDiff;
}

// Scheme: transport fitting

H2-H2
{
Diff1	-1.032E+01	;
Diff2	2.192E+00	;
Diff3	-7.539E-02	;
Diff4	3.511E-03	;
}
H-H2
{
Diff1	-1.202E+01	;
Diff2	3.033E+00	;
Diff3	-1.860E-01	;
Diff4	8.362E-03	;
}
H-H
{
Diff1	-1.519E+01	;
Diff2	4.384E+00	;
Diff3	-3.558E-01	;
Diff4	1.548E-02	;
}
O-H2
{
Diff1	-1.093E+01	;
Diff2	2.306E+00	;
Diff3	-8.736E-02	;
Diff4	3.898E-03	;
}
O-H
{
Diff1	-1.531E+01	;
Diff2	4.271E+00	;
Diff3	-3.482E-01	;
Diff4	1.545E-02	;
}
O-O
{
Diff1	-1.357E+01	;
Diff2	3.062E+00	;
Diff3	-1.890E-01	;
Diff4	8.454E-03	;
}
O2-H2
{
Diff1	-1.271E+01	;
Diff2	2.930E+00	;
Diff3	-1.740E-01	;
Diff4	7.901E-03	;
}
O2-H
{
Diff1	-1.761E+01	;
Diff2	5.048E+00	;
Diff3	-4.491E-01	;
Diff4	1.981E-02	;
}
O2-O
{
Diff1	-1.511E+01	;
Diff2	3.515E+00	;
Diff3	-2.491E-01	;
Diff4	1.112E-02	;
}
O2-O2
{
Diff1	-1.605E+01	;
Diff2	3.688E+00	;
Diff3	-2.691E-01	;
Diff4	1.188E-02	;
}
OH-H2
{
Diff1	-1.094E+01	;
Diff2	2.306E+00	;
Diff3	-8.736E-02	;
Diff4	3.897E-03	;
}
OH-H
{
Diff1	-1.533E+01	;
Diff2	4.278E+00	;
Diff3	-3.491E-01	;
Diff4	1.549E-02	;
}
OH-O
{
Diff1	-1.358E+01	;
Diff2	3.063E+00	;
Diff3	-1.890E-01	;
Diff4	8.457E-03	;
}
OH-O2
{
Diff1	-1.510E+01	;
Diff2	3.500E+00	;
Diff3	-2.470E-01	;
Diff4	1.102E-02	;
}
OH-OH
{
Diff1	-1.360E+01	;
Diff2	3.062E+00	;
Diff3	-1.890E-01	;
Diff4	8.454E-03	;
}
H2O-H2
{
Diff1	-1.818E+01	;
Diff2	5.044E+00	;
Diff3	-4.377E-01	;
Diff4	1.888E-02	;
}
H2O-H
{
Diff1	-1.651E+01	;
Diff2	4.221E+00	;
Diff3	-2.826E-01	;
Diff4	1.018E-02	;
}
H2O-O
{
Diff1	-1.907E+01	;
Diff2	4.989E+00	;
Diff3	-4.193E-01	;
Diff4	1.762E-02	;
}
H2O-O2
{
Diff1	-2.030E+01	;
Diff2	5.168E+00	;
Diff3	-4.261E-01	;
Diff4	1.725E-02	;
}
H2O-OH
{
Diff1	-1.908E+01	;
Diff2	4.990E+00	;
Diff3	-4.194E-01	;
Diff4	1.763E-02	;
}
H2O-H2O
{
Diff1	-1.180E+01	;
Diff2	8.888E-01	;
Diff3	2.462E-01	;
Diff4	-1.607E-02	;
}
HO2-H2
{
Diff1	-1.271E+01	;
Diff2	2.931E+00	;
Diff3	-1.742E-01	;
Diff4	7.911E-03	;
}
HO2-H
{
Diff1	-1.762E+01	;
Diff2	5.052E+00	;
Diff3	-4.496E-01	;
Diff4	1.984E-02	;
}
HO2-O
{
Diff1	-1.514E+01	;
Diff2	3.523E+00	;
Diff3	-2.502E-01	;
Diff4	1.117E-02	;
}
HO2-O2
{
Diff1	-1.606E+01	;
Diff2	3.688E+00	;
Diff3	-2.691E-01	;
Diff4	1.188E-02	;
}
HO2-OH
{
Diff1	-1.512E+01	;
Diff2	3.508E+00	;
Diff3	-2.481E-01	;
Diff4	1.107E-02	;
}
HO2-H2O
{
Diff1	-1.969E+01	;
Diff2	4.975E+00	;
Diff3	-4.063E-01	;
Diff4	1.660E-02	;
}
HO2-HO2
{
Diff1	-1.607E+01	;
Diff2	3.688E+00	;
Diff3	-2.691E-01	;
Diff4	1.188E-02	;
}
H2O2-H2
{
Diff1	-1.272E+01	;
Diff2	2.932E+00	;
Diff3	-1.744E-01	;
Diff4	7.920E-03	;
}
H2O2-H
{
Diff1	-1.763E+01	;
Diff2	5.056E+00	;
Diff3	-4.501E-01	;
Diff4	1.986E-02	;
}
H2O2-O
{
Diff1	-1.516E+01	;
Diff2	3.531E+00	;
Diff3	-2.513E-01	;
Diff4	1.122E-02	;
}
H2O2-O2
{
Diff1	-1.607E+01	;
Diff2	3.689E+00	;
Diff3	-2.692E-01	;
Diff4	1.188E-02	;
}
H2O2-OH
{
Diff1	-1.514E+01	;
Diff2	3.515E+00	;
Diff3	-2.491E-01	;
Diff4	1.112E-02	;
}
H2O2-H2O
{
Diff1	-1.968E+01	;
Diff2	4.965E+00	;
Diff3	-4.047E-01	;
Diff4	1.653E-02	;
}
H2O2-HO2
{
Diff1	-1.607E+01	;
Diff2	3.688E+00	;
Diff3	-2.691E-01	;
Diff4	1.188E-02	;
}
H2O2-H2O2
{
Diff1	-1.608E+01	;
Diff2	3.688E+00	;
Diff3	-2.691E-01	;
Diff4	1.188E-02	;
}
C-H2
{
Diff1	-1.081E+01	;
Diff2	2.189E+00	;
Diff3	-7.097E-02	;
Diff4	3.132E-03	;
}
C-H
{
Diff1	-1.560E+01	;
Diff2	4.331E+00	;
Diff3	-3.590E-01	;
Diff4	1.605E-02	;
}
C-O
{
Diff1	-1.340E+01	;
Diff2	2.957E+00	;
Diff3	-1.751E-01	;
Diff4	7.849E-03	;
}
C-O2
{
Diff1	-1.481E+01	;
Diff2	3.371E+00	;
Diff3	-2.301E-01	;
Diff4	1.028E-02	;
}
C-OH
{
Diff1	-1.342E+01	;
Diff2	2.959E+00	;
Diff3	-1.755E-01	;
Diff4	7.866E-03	;
}
C-H2O
{
Diff1	-1.897E+01	;
Diff2	4.932E+00	;
Diff3	-4.146E-01	;
Diff4	1.752E-02	;
}
C-HO2
{
Diff1	-1.483E+01	;
Diff2	3.377E+00	;
Diff3	-2.309E-01	;
Diff4	1.032E-02	;
}
C-H2O2
{
Diff1	-1.484E+01	;
Diff2	3.383E+00	;
Diff3	-2.317E-01	;
Diff4	1.035E-02	;
}
C-C
{
Diff1	-1.328E+01	;
Diff2	2.872E+00	;
Diff3	-1.641E-01	;
Diff4	7.373E-03	;
}
CH-H2
{
Diff1	-1.092E+01	;
Diff2	2.306E+00	;
Diff3	-8.737E-02	;
Diff4	3.898E-03	;
}
CH-H
{
Diff1	-1.525E+01	;
Diff2	4.246E+00	;
Diff3	-3.449E-01	;
Diff4	1.530E-02	;
}
CH-O
{
Diff1	-1.353E+01	;
Diff2	3.068E+00	;
Diff3	-1.898E-01	;
Diff4	8.490E-03	;
}
CH-O2
{
Diff1	-1.517E+01	;
Diff2	3.569E+00	;
Diff3	-2.566E-01	;
Diff4	1.146E-02	;
}
CH-OH
{
Diff1	-1.355E+01	;
Diff2	3.071E+00	;
Diff3	-1.903E-01	;
Diff4	8.515E-03	;
}
CH-H2O
{
Diff1	-1.899E+01	;
Diff2	4.979E+00	;
Diff3	-4.176E-01	;
Diff4	1.753E-02	;
}
CH-HO2
{
Diff1	-1.519E+01	;
Diff2	3.577E+00	;
Diff3	-2.577E-01	;
Diff4	1.151E-02	;
}
CH-H2O2
{
Diff1	-1.521E+01	;
Diff2	3.585E+00	;
Diff3	-2.588E-01	;
Diff4	1.156E-02	;
}
CH-C
{
Diff1	-1.335E+01	;
Diff2	2.954E+00	;
Diff3	-1.748E-01	;
Diff4	7.833E-03	;
}
CH-CH
{
Diff1	-1.347E+01	;
Diff2	3.062E+00	;
Diff3	-1.890E-01	;
Diff4	8.454E-03	;
}
CH2-H2
{
Diff1	-1.356E+01	;
Diff2	3.231E+00	;
Diff3	-2.138E-01	;
Diff4	9.659E-03	;
}
CH2-H
{
Diff1	-1.799E+01	;
Diff2	5.080E+00	;
Diff3	-4.444E-01	;
Diff4	1.923E-02	;
}
CH2-O
{
Diff1	-1.559E+01	;
Diff2	3.700E+00	;
Diff3	-2.707E-01	;
Diff4	1.195E-02	;
}
CH2-O2
{
Diff1	-1.708E+01	;
Diff2	4.133E+00	;
Diff3	-3.261E-01	;
Diff4	1.431E-02	;
}
CH2-OH
{
Diff1	-1.560E+01	;
Diff2	3.697E+00	;
Diff3	-2.703E-01	;
Diff4	1.193E-02	;
}
CH2-H2O
{
Diff1	-2.041E+01	;
Diff2	5.224E+00	;
Diff3	-4.327E-01	;
Diff4	1.753E-02	;
}
CH2-HO2
{
Diff1	-1.710E+01	;
Diff2	4.139E+00	;
Diff3	-3.269E-01	;
Diff4	1.435E-02	;
}
CH2-H2O2
{
Diff1	-1.712E+01	;
Diff2	4.145E+00	;
Diff3	-3.277E-01	;
Diff4	1.438E-02	;
}
CH2-C
{
Diff1	-1.533E+01	;
Diff2	3.572E+00	;
Diff3	-2.546E-01	;
Diff4	1.127E-02	;
}
CH2-CH
{
Diff1	-1.558E+01	;
Diff2	3.718E+00	;
Diff3	-2.731E-01	;
Diff4	1.206E-02	;
}
CH2-CH2
{
Diff1	-1.770E+01	;
Diff2	4.368E+00	;
Diff3	-3.537E-01	;
Diff4	1.540E-02	;
}
CH2(S)-H2
{
Diff1	-1.356E+01	;
Diff2	3.231E+00	;
Diff3	-2.138E-01	;
Diff4	9.659E-03	;
}
CH2(S)-H
{
Diff1	-1.799E+01	;
Diff2	5.080E+00	;
Diff3	-4.444E-01	;
Diff4	1.923E-02	;
}
CH2(S)-O
{
Diff1	-1.559E+01	;
Diff2	3.700E+00	;
Diff3	-2.707E-01	;
Diff4	1.195E-02	;
}
CH2(S)-O2
{
Diff1	-1.708E+01	;
Diff2	4.133E+00	;
Diff3	-3.261E-01	;
Diff4	1.431E-02	;
}
CH2(S)-OH
{
Diff1	-1.560E+01	;
Diff2	3.697E+00	;
Diff3	-2.703E-01	;
Diff4	1.193E-02	;
}
CH2(S)-H2O
{
Diff1	-2.041E+01	;
Diff2	5.224E+00	;
Diff3	-4.327E-01	;
Diff4	1.753E-02	;
}
CH2(S)-HO2
{
Diff1	-1.710E+01	;
Diff2	4.139E+00	;
Diff3	-3.269E-01	;
Diff4	1.435E-02	;
}
CH2(S)-H2O2
{
Diff1	-1.712E+01	;
Diff2	4.145E+00	;
Diff3	-3.277E-01	;
Diff4	1.438E-02	;
}
CH2(S)-C
{
Diff1	-1.533E+01	;
Diff2	3.572E+00	;
Diff3	-2.546E-01	;
Diff4	1.127E-02	;
}
CH2(S)-CH
{
Diff1	-1.558E+01	;
Diff2	3.718E+00	;
Diff3	-2.731E-01	;
Diff4	1.206E-02	;
}
CH2(S)-CH2
{
Diff1	-1.770E+01	;
Diff2	4.368E+00	;
Diff3	-3.537E-01	;
Diff4	1.540E-02	;
}
CH2(S)-CH2(S)
{
Diff1	-1.770E+01	;
Diff2	4.368E+00	;
Diff3	-3.537E-01	;
Diff4	1.540E-02	;
}
CH3-H2
{
Diff1	-1.358E+01	;
Diff2	3.240E+00	;
Diff3	-2.151E-01	;
Diff4	9.715E-03	;
}
CH3-H
{
Diff1	-1.802E+01	;
Diff2	5.090E+00	;
Diff3	-4.458E-01	;
Diff4	1.929E-02	;
}
CH3-O
{
Diff1	-1.562E+01	;
Diff2	3.704E+00	;
Diff3	-2.712E-01	;
Diff4	1.197E-02	;
}
CH3-O2
{
Diff1	-1.707E+01	;
Diff2	4.120E+00	;
Diff3	-3.243E-01	;
Diff4	1.423E-02	;
}
CH3-OH
{
Diff1	-1.562E+01	;
Diff2	3.700E+00	;
Diff3	-2.707E-01	;
Diff4	1.195E-02	;
}
CH3-H2O
{
Diff1	-2.042E+01	;
Diff2	5.222E+00	;
Diff3	-4.325E-01	;
Diff4	1.752E-02	;
}
CH3-HO2
{
Diff1	-1.709E+01	;
Diff2	4.126E+00	;
Diff3	-3.251E-01	;
Diff4	1.427E-02	;
}
CH3-H2O2
{
Diff1	-1.711E+01	;
Diff2	4.131E+00	;
Diff3	-3.258E-01	;
Diff4	1.430E-02	;
}
CH3-C
{
Diff1	-1.536E+01	;
Diff2	3.580E+00	;
Diff3	-2.558E-01	;
Diff4	1.133E-02	;
}
CH3-CH
{
Diff1	-1.562E+01	;
Diff2	3.727E+00	;
Diff3	-2.744E-01	;
Diff4	1.212E-02	;
}
CH3-CH2
{
Diff1	-1.771E+01	;
Diff2	4.368E+00	;
Diff3	-3.538E-01	;
Diff4	1.540E-02	;
}
CH3-CH2(S)
{
Diff1	-1.771E+01	;
Diff2	4.368E+00	;
Diff3	-3.538E-01	;
Diff4	1.540E-02	;
}
CH3-CH3
{
Diff1	-1.773E+01	;
Diff2	4.368E+00	;
Diff3	-3.537E-01	;
Diff4	1.540E-02	;
}
CH4-H2
{
Diff1	-1.354E+01	;
Diff2	3.227E+00	;
Diff3	-2.134E-01	;
Diff4	9.645E-03	;
}
CH4-H
{
Diff1	-1.790E+01	;
Diff2	5.054E+00	;
Diff3	-4.413E-01	;
Diff4	1.911E-02	;
}
CH4-O
{
Diff1	-1.556E+01	;
Diff2	3.684E+00	;
Diff3	-2.687E-01	;
Diff4	1.186E-02	;
}
CH4-O2
{
Diff1	-1.696E+01	;
Diff2	4.074E+00	;
Diff3	-3.183E-01	;
Diff4	1.397E-02	;
}
CH4-OH
{
Diff1	-1.557E+01	;
Diff2	3.679E+00	;
Diff3	-2.680E-01	;
Diff4	1.183E-02	;
}
CH4-H2O
{
Diff1	-2.053E+01	;
Diff2	5.191E+00	;
Diff3	-4.197E-01	;
Diff4	1.662E-02	;
}
CH4-HO2
{
Diff1	-1.698E+01	;
Diff2	4.080E+00	;
Diff3	-3.190E-01	;
Diff4	1.400E-02	;
}
CH4-H2O2
{
Diff1	-1.700E+01	;
Diff2	4.085E+00	;
Diff3	-3.198E-01	;
Diff4	1.403E-02	;
}
CH4-C
{
Diff1	-1.530E+01	;
Diff2	3.557E+00	;
Diff3	-2.527E-01	;
Diff4	1.120E-02	;
}
CH4-CH
{
Diff1	-1.557E+01	;
Diff2	3.710E+00	;
Diff3	-2.723E-01	;
Diff4	1.203E-02	;
}
CH4-CH2
{
Diff1	-1.765E+01	;
Diff2	4.345E+00	;
Diff3	-3.509E-01	;
Diff4	1.528E-02	;
}
CH4-CH2(S)
{
Diff1	-1.765E+01	;
Diff2	4.345E+00	;
Diff3	-3.509E-01	;
Diff4	1.528E-02	;
}
CH4-CH3
{
Diff1	-1.766E+01	;
Diff2	4.343E+00	;
Diff3	-3.507E-01	;
Diff4	1.527E-02	;
}
CH4-CH4
{
Diff1	-1.760E+01	;
Diff2	4.320E+00	;
Diff3	-3.478E-01	;
Diff4	1.515E-02	;
}
CO-H2
{
Diff1	-1.268E+01	;
Diff2	2.903E+00	;
Diff3	-1.708E-01	;
Diff4	7.771E-03	;
}
CO-H
{
Diff1	-1.719E+01	;
Diff2	4.859E+00	;
Diff3	-4.241E-01	;
Diff4	1.871E-02	;
}
CO-O
{
Diff1	-1.478E+01	;
Diff2	3.371E+00	;
Diff3	-2.299E-01	;
Diff4	1.026E-02	;
}
CO-O2
{
Diff1	-1.582E+01	;
Diff2	3.599E+00	;
Diff3	-2.582E-01	;
Diff4	1.143E-02	;
}
CO-OH
{
Diff1	-1.477E+01	;
Diff2	3.358E+00	;
Diff3	-2.280E-01	;
Diff4	1.017E-02	;
}
CO-H2O
{
Diff1	-2.031E+01	;
Diff2	5.186E+00	;
Diff3	-4.314E-01	;
Diff4	1.760E-02	;
}
CO-HO2
{
Diff1	-1.583E+01	;
Diff2	3.601E+00	;
Diff3	-2.584E-01	;
Diff4	1.144E-02	;
}
CO-H2O2
{
Diff1	-1.584E+01	;
Diff2	3.602E+00	;
Diff3	-2.586E-01	;
Diff4	1.145E-02	;
}
CO-C
{
Diff1	-1.452E+01	;
Diff2	3.244E+00	;
Diff3	-2.132E-01	;
Diff4	9.527E-03	;
}
CO-CH
{
Diff1	-1.483E+01	;
Diff2	3.420E+00	;
Diff3	-2.366E-01	;
Diff4	1.057E-02	;
}
CO-CH2
{
Diff1	-1.662E+01	;
Diff2	3.942E+00	;
Diff3	-3.010E-01	;
Diff4	1.321E-02	;
}
CO-CH2(S)
{
Diff1	-1.662E+01	;
Diff2	3.942E+00	;
Diff3	-3.010E-01	;
Diff4	1.321E-02	;
}
CO-CH3
{
Diff1	-1.661E+01	;
Diff2	3.930E+00	;
Diff3	-2.994E-01	;
Diff4	1.314E-02	;
}
CO-CH4
{
Diff1	-1.655E+01	;
Diff2	3.903E+00	;
Diff3	-2.960E-01	;
Diff4	1.300E-02	;
}
CO-CO
{
Diff1	-1.551E+01	;
Diff2	3.473E+00	;
Diff3	-2.416E-01	;
Diff4	1.071E-02	;
}
CO2-H2
{
Diff1	-1.565E+01	;
Diff2	4.026E+00	;
Diff3	-3.181E-01	;
Diff4	1.422E-02	;
}
CO2-H
{
Diff1	-1.725E+01	;
Diff2	4.567E+00	;
Diff3	-3.509E-01	;
Diff4	1.403E-02	;
}
CO2-O
{
Diff1	-1.794E+01	;
Diff2	4.490E+00	;
Diff3	-3.698E-01	;
Diff4	1.609E-02	;
}
CO2-O2
{
Diff1	-1.869E+01	;
Diff2	4.566E+00	;
Diff3	-3.755E-01	;
Diff4	1.617E-02	;
}
CO2-OH
{
Diff1	-1.792E+01	;
Diff2	4.476E+00	;
Diff3	-3.680E-01	;
Diff4	1.602E-02	;
}
CO2-H2O
{
Diff1	-1.925E+01	;
Diff2	4.357E+00	;
Diff3	-2.836E-01	;
Diff4	9.647E-03	;
}
CO2-HO2
{
Diff1	-1.869E+01	;
Diff2	4.564E+00	;
Diff3	-3.753E-01	;
Diff4	1.617E-02	;
}
CO2-H2O2
{
Diff1	-1.869E+01	;
Diff2	4.563E+00	;
Diff3	-3.751E-01	;
Diff4	1.616E-02	;
}
CO2-C
{
Diff1	-1.781E+01	;
Diff2	4.440E+00	;
Diff3	-3.655E-01	;
Diff4	1.600E-02	;
}
CO2-CH
{
Diff1	-1.797E+01	;
Diff2	4.535E+00	;
Diff3	-3.755E-01	;
Diff4	1.634E-02	;
}
CO2-CH2
{
Diff1	-1.920E+01	;
Diff2	4.769E+00	;
Diff3	-3.938E-01	;
Diff4	1.663E-02	;
}
CO2-CH2(S)
{
Diff1	-1.920E+01	;
Diff2	4.769E+00	;
Diff3	-3.938E-01	;
Diff4	1.663E-02	;
}
CO2-CH3
{
Diff1	-1.923E+01	;
Diff2	4.772E+00	;
Diff3	-3.945E-01	;
Diff4	1.667E-02	;
}
CO2-CH4
{
Diff1	-1.921E+01	;
Diff2	4.765E+00	;
Diff3	-3.942E-01	;
Diff4	1.669E-02	;
}
CO2-CO
{
Diff1	-1.853E+01	;
Diff2	4.517E+00	;
Diff3	-3.708E-01	;
Diff4	1.604E-02	;
}
CO2-CO2
{
Diff1	-2.075E+01	;
Diff2	5.126E+00	;
Diff3	-4.300E-01	;
Diff4	1.780E-02	;
}
HCO-H2
{
Diff1	-1.747E+01	;
Diff2	4.671E+00	;
Diff3	-3.932E-01	;
Diff4	1.710E-02	;
}
HCO-H
{
Diff1	-1.541E+01	;
Diff2	3.572E+00	;
Diff3	-1.879E-01	;
Diff4	5.592E-03	;
}
HCO-O
{
Diff1	-1.915E+01	;
Diff2	4.869E+00	;
Diff3	-4.046E-01	;
Diff4	1.701E-02	;
}
HCO-O2
{
Diff1	-2.032E+01	;
Diff2	5.114E+00	;
Diff3	-4.319E-01	;
Diff4	1.803E-02	;
}
HCO-OH
{
Diff1	-1.918E+01	;
Diff2	4.876E+00	;
Diff3	-4.058E-01	;
Diff4	1.708E-02	;
}
HCO-H2O
{
Diff1	-1.757E+01	;
Diff2	3.511E+00	;
Diff3	-1.498E-01	;
Diff4	2.967E-03	;
}
HCO-HO2
{
Diff1	-2.032E+01	;
Diff2	5.113E+00	;
Diff3	-4.318E-01	;
Diff4	1.802E-02	;
}
HCO-H2O2
{
Diff1	-2.033E+01	;
Diff2	5.111E+00	;
Diff3	-4.316E-01	;
Diff4	1.801E-02	;
}
HCO-C
{
Diff1	-1.896E+01	;
Diff2	4.791E+00	;
Diff3	-3.970E-01	;
Diff4	1.678E-02	;
}
HCO-CH
{
Diff1	-1.904E+01	;
Diff2	4.844E+00	;
Diff3	-4.002E-01	;
Diff4	1.677E-02	;
}
HCO-CH2
{
Diff1	-2.040E+01	;
Diff2	5.098E+00	;
Diff3	-4.183E-01	;
Diff4	1.697E-02	;
}
HCO-CH2(S)
{
Diff1	-2.040E+01	;
Diff2	5.098E+00	;
Diff3	-4.183E-01	;
Diff4	1.697E-02	;
}
HCO-CH3
{
Diff1	-2.047E+01	;
Diff2	5.119E+00	;
Diff3	-4.215E-01	;
Diff4	1.712E-02	;
}
HCO-CH4
{
Diff1	-2.049E+01	;
Diff2	5.133E+00	;
Diff3	-4.243E-01	;
Diff4	1.729E-02	;
}
HCO-CO
{
Diff1	-2.009E+01	;
Diff2	5.038E+00	;
Diff3	-4.241E-01	;
Diff4	1.777E-02	;
}
HCO-CO2
{
Diff1	-2.103E+01	;
Diff2	5.059E+00	;
Diff3	-3.956E-01	;
Diff4	1.531E-02	;
}
HCO-HCO
{
Diff1	-1.886E+01	;
Diff2	3.923E+00	;
Diff3	-2.116E-01	;
Diff4	5.939E-03	;
}
CH2O-H2
{
Diff1	-1.748E+01	;
Diff2	4.673E+00	;
Diff3	-3.935E-01	;
Diff4	1.711E-02	;
}
CH2O-H
{
Diff1	-1.539E+01	;
Diff2	3.565E+00	;
Diff3	-1.868E-01	;
Diff4	5.537E-03	;
}
CH2O-O
{
Diff1	-1.915E+01	;
Diff2	4.865E+00	;
Diff3	-4.039E-01	;
Diff4	1.697E-02	;
}
CH2O-O2
{
Diff1	-2.033E+01	;
Diff2	5.114E+00	;
Diff3	-4.320E-01	;
Diff4	1.803E-02	;
}
CH2O-OH
{
Diff1	-1.918E+01	;
Diff2	4.872E+00	;
Diff3	-4.052E-01	;
Diff4	1.704E-02	;
}
CH2O-H2O
{
Diff1	-1.757E+01	;
Diff2	3.509E+00	;
Diff3	-1.496E-01	;
Diff4	2.962E-03	;
}
CH2O-HO2
{
Diff1	-2.033E+01	;
Diff2	5.114E+00	;
Diff3	-4.319E-01	;
Diff4	1.803E-02	;
}
CH2O-H2O2
{
Diff1	-2.034E+01	;
Diff2	5.113E+00	;
Diff3	-4.318E-01	;
Diff4	1.802E-02	;
}
CH2O-C
{
Diff1	-1.896E+01	;
Diff2	4.790E+00	;
Diff3	-3.966E-01	;
Diff4	1.676E-02	;
}
CH2O-CH
{
Diff1	-1.904E+01	;
Diff2	4.839E+00	;
Diff3	-3.994E-01	;
Diff4	1.672E-02	;
}
CH2O-CH2
{
Diff1	-2.038E+01	;
Diff2	5.087E+00	;
Diff3	-4.167E-01	;
Diff4	1.689E-02	;
}
CH2O-CH2(S)
{
Diff1	-2.038E+01	;
Diff2	5.087E+00	;
Diff3	-4.167E-01	;
Diff4	1.689E-02	;
}
CH2O-CH3
{
Diff1	-2.045E+01	;
Diff2	5.109E+00	;
Diff3	-4.199E-01	;
Diff4	1.705E-02	;
}
CH2O-CH4
{
Diff1	-2.047E+01	;
Diff2	5.123E+00	;
Diff3	-4.229E-01	;
Diff4	1.722E-02	;
}
CH2O-CO
{
Diff1	-2.010E+01	;
Diff2	5.037E+00	;
Diff3	-4.240E-01	;
Diff4	1.777E-02	;
}
CH2O-CO2
{
Diff1	-2.106E+01	;
Diff2	5.066E+00	;
Diff3	-3.967E-01	;
Diff4	1.537E-02	;
}
CH2O-HCO
{
Diff1	-1.886E+01	;
Diff2	3.923E+00	;
Diff3	-2.116E-01	;
Diff4	5.939E-03	;
}
CH2O-CH2O
{
Diff1	-1.887E+01	;
Diff2	3.923E+00	;
Diff3	-2.116E-01	;
Diff4	5.939E-03	;
}
CH2OH-H2
{
Diff1	-1.798E+01	;
Diff2	4.905E+00	;
Diff3	-4.293E-01	;
Diff4	1.891E-02	;
}
CH2OH-H
{
Diff1	-1.561E+01	;
Diff2	3.698E+00	;
Diff3	-2.103E-01	;
Diff4	6.792E-03	;
}
CH2OH-O
{
Diff1	-1.878E+01	;
Diff2	4.746E+00	;
Diff3	-3.924E-01	;
Diff4	1.664E-02	;
}
CH2OH-O2
{
Diff1	-2.016E+01	;
Diff2	5.064E+00	;
Diff3	-4.282E-01	;
Diff4	1.797E-02	;
}
CH2OH-OH
{
Diff1	-1.880E+01	;
Diff2	4.748E+00	;
Diff3	-3.930E-01	;
Diff4	1.667E-02	;
}
CH2OH-H2O
{
Diff1	-1.620E+01	;
Diff2	2.843E+00	;
Diff3	-5.104E-02	;
Diff4	-1.708E-03	;
}
CH2OH-HO2
{
Diff1	-1.994E+01	;
Diff2	4.989E+00	;
Diff3	-4.201E-01	;
Diff4	1.769E-02	;
}
CH2OH-H2O2
{
Diff1	-1.995E+01	;
Diff2	4.989E+00	;
Diff3	-4.200E-01	;
Diff4	1.768E-02	;
}
CH2OH-C
{
Diff1	-1.868E+01	;
Diff2	4.705E+00	;
Diff3	-3.897E-01	;
Diff4	1.663E-02	;
}
CH2OH-CH
{
Diff1	-1.871E+01	;
Diff2	4.739E+00	;
Diff3	-3.906E-01	;
Diff4	1.651E-02	;
}
CH2OH-CH2
{
Diff1	-2.006E+01	;
Diff2	5.000E+00	;
Diff3	-4.103E-01	;
Diff4	1.681E-02	;
}
CH2OH-CH2(S)
{
Diff1	-2.006E+01	;
Diff2	5.000E+00	;
Diff3	-4.103E-01	;
Diff4	1.681E-02	;
}
CH2OH-CH3
{
Diff1	-2.013E+01	;
Diff2	5.018E+00	;
Diff3	-4.131E-01	;
Diff4	1.695E-02	;
}
CH2OH-CH4
{
Diff1	-2.034E+01	;
Diff2	5.090E+00	;
Diff3	-4.212E-01	;
Diff4	1.725E-02	;
}
CH2OH-CO
{
Diff1	-2.003E+01	;
Diff2	5.029E+00	;
Diff3	-4.259E-01	;
Diff4	1.797E-02	;
}
CH2OH-CO2
{
Diff1	-2.111E+01	;
Diff2	5.115E+00	;
Diff3	-4.073E-01	;
Diff4	1.599E-02	;
}
CH2OH-HCO
{
Diff1	-1.982E+01	;
Diff2	4.379E+00	;
Diff3	-2.814E-01	;
Diff4	9.371E-03	;
}
CH2OH-CH2O
{
Diff1	-1.983E+01	;
Diff2	4.379E+00	;
Diff3	-2.815E-01	;
Diff4	9.374E-03	;
}
CH2OH-CH2OH
{
Diff1	-1.906E+01	;
Diff2	4.049E+00	;
Diff3	-2.360E-01	;
Diff4	7.308E-03	;
}
CH3O-H2
{
Diff1	-1.798E+01	;
Diff2	4.905E+00	;
Diff3	-4.293E-01	;
Diff4	1.891E-02	;
}
CH3O-H
{
Diff1	-1.561E+01	;
Diff2	3.698E+00	;
Diff3	-2.103E-01	;
Diff4	6.792E-03	;
}
CH3O-O
{
Diff1	-1.878E+01	;
Diff2	4.746E+00	;
Diff3	-3.924E-01	;
Diff4	1.664E-02	;
}
CH3O-O2
{
Diff1	-2.016E+01	;
Diff2	5.064E+00	;
Diff3	-4.282E-01	;
Diff4	1.797E-02	;
}
CH3O-OH
{
Diff1	-1.880E+01	;
Diff2	4.748E+00	;
Diff3	-3.930E-01	;
Diff4	1.667E-02	;
}
CH3O-H2O
{
Diff1	-1.620E+01	;
Diff2	2.843E+00	;
Diff3	-5.104E-02	;
Diff4	-1.708E-03	;
}
CH3O-HO2
{
Diff1	-1.994E+01	;
Diff2	4.989E+00	;
Diff3	-4.201E-01	;
Diff4	1.769E-02	;
}
CH3O-H2O2
{
Diff1	-1.995E+01	;
Diff2	4.989E+00	;
Diff3	-4.200E-01	;
Diff4	1.768E-02	;
}
CH3O-C
{
Diff1	-1.868E+01	;
Diff2	4.705E+00	;
Diff3	-3.897E-01	;
Diff4	1.663E-02	;
}
CH3O-CH
{
Diff1	-1.871E+01	;
Diff2	4.739E+00	;
Diff3	-3.906E-01	;
Diff4	1.651E-02	;
}
CH3O-CH2
{
Diff1	-2.006E+01	;
Diff2	5.000E+00	;
Diff3	-4.103E-01	;
Diff4	1.681E-02	;
}
CH3O-CH2(S)
{
Diff1	-2.006E+01	;
Diff2	5.000E+00	;
Diff3	-4.103E-01	;
Diff4	1.681E-02	;
}
CH3O-CH3
{
Diff1	-2.013E+01	;
Diff2	5.018E+00	;
Diff3	-4.131E-01	;
Diff4	1.695E-02	;
}
CH3O-CH4
{
Diff1	-2.034E+01	;
Diff2	5.090E+00	;
Diff3	-4.212E-01	;
Diff4	1.725E-02	;
}
CH3O-CO
{
Diff1	-2.003E+01	;
Diff2	5.029E+00	;
Diff3	-4.259E-01	;
Diff4	1.797E-02	;
}
CH3O-CO2
{
Diff1	-2.111E+01	;
Diff2	5.115E+00	;
Diff3	-4.073E-01	;
Diff4	1.599E-02	;
}
CH3O-HCO
{
Diff1	-1.982E+01	;
Diff2	4.379E+00	;
Diff3	-2.814E-01	;
Diff4	9.371E-03	;
}
CH3O-CH2O
{
Diff1	-1.983E+01	;
Diff2	4.379E+00	;
Diff3	-2.815E-01	;
Diff4	9.374E-03	;
}
CH3O-CH2OH
{
Diff1	-1.906E+01	;
Diff2	4.049E+00	;
Diff3	-2.360E-01	;
Diff4	7.308E-03	;
}
CH3O-CH3O
{
Diff1	-1.906E+01	;
Diff2	4.049E+00	;
Diff3	-2.360E-01	;
Diff4	7.308E-03	;
}
CH3OH-H2
{
Diff1	-1.784E+01	;
Diff2	4.831E+00	;
Diff3	-4.170E-01	;
Diff4	1.826E-02	;
}
CH3OH-H
{
Diff1	-1.545E+01	;
Diff2	3.598E+00	;
Diff3	-1.925E-01	;
Diff4	5.844E-03	;
}
CH3OH-O
{
Diff1	-1.907E+01	;
Diff2	4.830E+00	;
Diff3	-3.998E-01	;
Diff4	1.681E-02	;
}
CH3OH-O2
{
Diff1	-2.029E+01	;
Diff2	5.097E+00	;
Diff3	-4.308E-01	;
Diff4	1.801E-02	;
}
CH3OH-OH
{
Diff1	-1.910E+01	;
Diff2	4.837E+00	;
Diff3	-4.010E-01	;
Diff4	1.687E-02	;
}
CH3OH-H2O
{
Diff1	-1.783E+01	;
Diff2	3.623E+00	;
Diff3	-1.669E-01	;
Diff4	3.814E-03	;
}
CH3OH-HO2
{
Diff1	-2.030E+01	;
Diff2	5.098E+00	;
Diff3	-4.308E-01	;
Diff4	1.802E-02	;
}
CH3OH-H2O2
{
Diff1	-2.030E+01	;
Diff2	5.098E+00	;
Diff3	-4.308E-01	;
Diff4	1.802E-02	;
}
CH3OH-C
{
Diff1	-1.890E+01	;
Diff2	4.763E+00	;
Diff3	-3.937E-01	;
Diff4	1.665E-02	;
}
CH3OH-CH
{
Diff1	-1.896E+01	;
Diff2	4.807E+00	;
Diff3	-3.956E-01	;
Diff4	1.657E-02	;
}
CH3OH-CH2
{
Diff1	-2.032E+01	;
Diff2	5.062E+00	;
Diff3	-4.142E-01	;
Diff4	1.681E-02	;
}
CH3OH-CH2(S)
{
Diff1	-2.032E+01	;
Diff2	5.062E+00	;
Diff3	-4.142E-01	;
Diff4	1.681E-02	;
}
CH3OH-CH3
{
Diff1	-2.039E+01	;
Diff2	5.083E+00	;
Diff3	-4.174E-01	;
Diff4	1.697E-02	;
}
CH3OH-CH4
{
Diff1	-2.040E+01	;
Diff2	5.095E+00	;
Diff3	-4.199E-01	;
Diff4	1.712E-02	;
}
CH3OH-CO
{
Diff1	-2.002E+01	;
Diff2	5.006E+00	;
Diff3	-4.206E-01	;
Diff4	1.765E-02	;
}
CH3OH-CO2
{
Diff1	-2.112E+01	;
Diff2	5.089E+00	;
Diff3	-4.011E-01	;
Diff4	1.561E-02	;
}
CH3OH-HCO
{
Diff1	-1.911E+01	;
Diff2	4.029E+00	;
Diff3	-2.274E-01	;
Diff4	6.707E-03	;
}
CH3OH-CH2O
{
Diff1	-1.912E+01	;
Diff2	4.029E+00	;
Diff3	-2.275E-01	;
Diff4	6.709E-03	;
}
CH3OH-CH2OH
{
Diff1	-1.999E+01	;
Diff2	4.450E+00	;
Diff3	-2.925E-01	;
Diff4	9.925E-03	;
}
CH3OH-CH3O
{
Diff1	-1.999E+01	;
Diff2	4.450E+00	;
Diff3	-2.925E-01	;
Diff4	9.925E-03	;
}
CH3OH-CH3OH
{
Diff1	-1.935E+01	;
Diff2	4.127E+00	;
Diff3	-2.423E-01	;
Diff4	7.438E-03	;
}
C2H-H2
{
Diff1	-1.528E+01	;
Diff2	3.863E+00	;
Diff3	-2.981E-01	;
Diff4	1.341E-02	;
}
C2H-H
{
Diff1	-1.774E+01	;
Diff2	4.780E+00	;
Diff3	-3.857E-01	;
Diff4	1.583E-02	;
}
C2H-O
{
Diff1	-1.728E+01	;
Diff2	4.250E+00	;
Diff3	-3.405E-01	;
Diff4	1.490E-02	;
}
C2H-O2
{
Diff1	-1.816E+01	;
Diff2	4.405E+00	;
Diff3	-3.570E-01	;
Diff4	1.547E-02	;
}
C2H-OH
{
Diff1	-1.726E+01	;
Diff2	4.235E+00	;
Diff3	-3.385E-01	;
Diff4	1.482E-02	;
}
C2H-H2O
{
Diff1	-2.028E+01	;
Diff2	4.923E+00	;
Diff3	-3.763E-01	;
Diff4	1.440E-02	;
}
C2H-HO2
{
Diff1	-1.817E+01	;
Diff2	4.405E+00	;
Diff3	-3.570E-01	;
Diff4	1.547E-02	;
}
C2H-H2O2
{
Diff1	-1.818E+01	;
Diff2	4.406E+00	;
Diff3	-3.571E-01	;
Diff4	1.548E-02	;
}
C2H-C
{
Diff1	-1.701E+01	;
Diff2	4.131E+00	;
Diff3	-3.260E-01	;
Diff4	1.432E-02	;
}
C2H-CH
{
Diff1	-1.735E+01	;
Diff2	4.305E+00	;
Diff3	-3.477E-01	;
Diff4	1.522E-02	;
}
C2H-CH2
{
Diff1	-1.892E+01	;
Diff2	4.701E+00	;
Diff3	-3.902E-01	;
Diff4	1.670E-02	;
}
C2H-CH2(S)
{
Diff1	-1.892E+01	;
Diff2	4.701E+00	;
Diff3	-3.902E-01	;
Diff4	1.670E-02	;
}
C2H-CH3
{
Diff1	-1.893E+01	;
Diff2	4.700E+00	;
Diff3	-3.902E-01	;
Diff4	1.670E-02	;
}
C2H-CH4
{
Diff1	-1.888E+01	;
Diff2	4.680E+00	;
Diff3	-3.880E-01	;
Diff4	1.662E-02	;
}
C2H-CO
{
Diff1	-1.801E+01	;
Diff2	4.352E+00	;
Diff3	-3.517E-01	;
Diff4	1.531E-02	;
}
C2H-CO2
{
Diff1	-2.037E+01	;
Diff2	5.043E+00	;
Diff3	-4.228E-01	;
Diff4	1.763E-02	;
}
C2H-HCO
{
Diff1	-2.112E+01	;
Diff2	5.172E+00	;
Diff3	-4.171E-01	;
Diff4	1.651E-02	;
}
C2H-CH2O
{
Diff1	-2.112E+01	;
Diff2	5.170E+00	;
Diff3	-4.168E-01	;
Diff4	1.649E-02	;
}
C2H-CH2OH
{
Diff1	-2.111E+01	;
Diff2	5.217E+00	;
Diff3	-4.300E-01	;
Diff4	1.734E-02	;
}
C2H-CH3O
{
Diff1	-2.111E+01	;
Diff2	5.217E+00	;
Diff3	-4.300E-01	;
Diff4	1.734E-02	;
}
C2H-CH3OH
{
Diff1	-2.119E+01	;
Diff2	5.199E+00	;
Diff3	-4.222E-01	;
Diff4	1.679E-02	;
}
C2H-C2H
{
Diff1	-2.006E+01	;
Diff2	4.984E+00	;
Diff3	-4.202E-01	;
Diff4	1.772E-02	;
}
C2H2-H2
{
Diff1	-1.529E+01	;
Diff2	3.868E+00	;
Diff3	-2.988E-01	;
Diff4	1.344E-02	;
}
C2H2-H
{
Diff1	-1.775E+01	;
Diff2	4.780E+00	;
Diff3	-3.857E-01	;
Diff4	1.583E-02	;
}
C2H2-O
{
Diff1	-1.732E+01	;
Diff2	4.260E+00	;
Diff3	-3.418E-01	;
Diff4	1.496E-02	;
}
C2H2-O2
{
Diff1	-1.817E+01	;
Diff2	4.404E+00	;
Diff3	-3.569E-01	;
Diff4	1.547E-02	;
}
C2H2-OH
{
Diff1	-1.730E+01	;
Diff2	4.244E+00	;
Diff3	-3.397E-01	;
Diff4	1.487E-02	;
}
C2H2-H2O
{
Diff1	-2.025E+01	;
Diff2	4.906E+00	;
Diff3	-3.738E-01	;
Diff4	1.429E-02	;
}
C2H2-HO2
{
Diff1	-1.818E+01	;
Diff2	4.404E+00	;
Diff3	-3.569E-01	;
Diff4	1.547E-02	;
}
C2H2-H2O2
{
Diff1	-1.819E+01	;
Diff2	4.405E+00	;
Diff3	-3.570E-01	;
Diff4	1.547E-02	;
}
C2H2-C
{
Diff1	-1.704E+01	;
Diff2	4.142E+00	;
Diff3	-3.275E-01	;
Diff4	1.439E-02	;
}
C2H2-CH
{
Diff1	-1.739E+01	;
Diff2	4.316E+00	;
Diff3	-3.492E-01	;
Diff4	1.529E-02	;
}
C2H2-CH2
{
Diff1	-1.893E+01	;
Diff2	4.701E+00	;
Diff3	-3.902E-01	;
Diff4	1.669E-02	;
}
C2H2-CH2(S)
{
Diff1	-1.893E+01	;
Diff2	4.701E+00	;
Diff3	-3.902E-01	;
Diff4	1.669E-02	;
}
C2H2-CH3
{
Diff1	-1.894E+01	;
Diff2	4.700E+00	;
Diff3	-3.902E-01	;
Diff4	1.670E-02	;
}
C2H2-CH4
{
Diff1	-1.889E+01	;
Diff2	4.680E+00	;
Diff3	-3.880E-01	;
Diff4	1.662E-02	;
}
C2H2-CO
{
Diff1	-1.802E+01	;
Diff2	4.352E+00	;
Diff3	-3.518E-01	;
Diff4	1.532E-02	;
}
C2H2-CO2
{
Diff1	-2.039E+01	;
Diff2	5.049E+00	;
Diff3	-4.238E-01	;
Diff4	1.768E-02	;
}
C2H2-HCO
{
Diff1	-2.113E+01	;
Diff2	5.173E+00	;
Diff3	-4.173E-01	;
Diff4	1.652E-02	;
}
C2H2-CH2O
{
Diff1	-2.114E+01	;
Diff2	5.172E+00	;
Diff3	-4.171E-01	;
Diff4	1.651E-02	;
}
C2H2-CH2OH
{
Diff1	-2.113E+01	;
Diff2	5.221E+00	;
Diff3	-4.305E-01	;
Diff4	1.736E-02	;
}
C2H2-CH3O
{
Diff1	-2.113E+01	;
Diff2	5.221E+00	;
Diff3	-4.305E-01	;
Diff4	1.736E-02	;
}
C2H2-CH3OH
{
Diff1	-2.121E+01	;
Diff2	5.203E+00	;
Diff3	-4.228E-01	;
Diff4	1.682E-02	;
}
C2H2-C2H
{
Diff1	-2.007E+01	;
Diff2	4.984E+00	;
Diff3	-4.201E-01	;
Diff4	1.772E-02	;
}
C2H2-C2H2
{
Diff1	-2.008E+01	;
Diff2	4.984E+00	;
Diff3	-4.202E-01	;
Diff4	1.772E-02	;
}
C2H3-H2
{
Diff1	-1.530E+01	;
Diff2	3.873E+00	;
Diff3	-2.995E-01	;
Diff4	1.347E-02	;
}
C2H3-H
{
Diff1	-1.775E+01	;
Diff2	4.781E+00	;
Diff3	-3.856E-01	;
Diff4	1.582E-02	;
}
C2H3-O
{
Diff1	-1.735E+01	;
Diff2	4.269E+00	;
Diff3	-3.431E-01	;
Diff4	1.502E-02	;
}
C2H3-O2
{
Diff1	-1.818E+01	;
Diff2	4.404E+00	;
Diff3	-3.569E-01	;
Diff4	1.547E-02	;
}
C2H3-OH
{
Diff1	-1.733E+01	;
Diff2	4.254E+00	;
Diff3	-3.410E-01	;
Diff4	1.493E-02	;
}
C2H3-H2O
{
Diff1	-2.021E+01	;
Diff2	4.889E+00	;
Diff3	-3.713E-01	;
Diff4	1.417E-02	;
}
C2H3-HO2
{
Diff1	-1.819E+01	;
Diff2	4.404E+00	;
Diff3	-3.569E-01	;
Diff4	1.547E-02	;
}
C2H3-H2O2
{
Diff1	-1.820E+01	;
Diff2	4.404E+00	;
Diff3	-3.569E-01	;
Diff4	1.547E-02	;
}
C2H3-C
{
Diff1	-1.707E+01	;
Diff2	4.152E+00	;
Diff3	-3.290E-01	;
Diff4	1.445E-02	;
}
C2H3-CH
{
Diff1	-1.742E+01	;
Diff2	4.327E+00	;
Diff3	-3.506E-01	;
Diff4	1.535E-02	;
}
C2H3-CH2
{
Diff1	-1.894E+01	;
Diff2	4.702E+00	;
Diff3	-3.902E-01	;
Diff4	1.668E-02	;
}
C2H3-CH2(S)
{
Diff1	-1.894E+01	;
Diff2	4.702E+00	;
Diff3	-3.902E-01	;
Diff4	1.668E-02	;
}
C2H3-CH3
{
Diff1	-1.895E+01	;
Diff2	4.701E+00	;
Diff3	-3.902E-01	;
Diff4	1.669E-02	;
}
C2H3-CH4
{
Diff1	-1.890E+01	;
Diff2	4.681E+00	;
Diff3	-3.880E-01	;
Diff4	1.662E-02	;
}
C2H3-CO
{
Diff1	-1.803E+01	;
Diff2	4.353E+00	;
Diff3	-3.519E-01	;
Diff4	1.532E-02	;
}
C2H3-CO2
{
Diff1	-2.041E+01	;
Diff2	5.054E+00	;
Diff3	-4.246E-01	;
Diff4	1.772E-02	;
}
C2H3-HCO
{
Diff1	-2.114E+01	;
Diff2	5.174E+00	;
Diff3	-4.174E-01	;
Diff4	1.652E-02	;
}
C2H3-CH2O
{
Diff1	-2.115E+01	;
Diff2	5.173E+00	;
Diff3	-4.173E-01	;
Diff4	1.652E-02	;
}
C2H3-CH2OH
{
Diff1	-2.114E+01	;
Diff2	5.223E+00	;
Diff3	-4.308E-01	;
Diff4	1.738E-02	;
}
C2H3-CH3O
{
Diff1	-2.114E+01	;
Diff2	5.223E+00	;
Diff3	-4.308E-01	;
Diff4	1.738E-02	;
}
C2H3-CH3OH
{
Diff1	-2.122E+01	;
Diff2	5.206E+00	;
Diff3	-4.232E-01	;
Diff4	1.684E-02	;
}
C2H3-C2H
{
Diff1	-2.008E+01	;
Diff2	4.983E+00	;
Diff3	-4.200E-01	;
Diff4	1.771E-02	;
}
C2H3-C2H2
{
Diff1	-2.009E+01	;
Diff2	4.984E+00	;
Diff3	-4.201E-01	;
Diff4	1.772E-02	;
}
C2H3-C2H3
{
Diff1	-2.010E+01	;
Diff2	4.984E+00	;
Diff3	-4.202E-01	;
Diff4	1.772E-02	;
}
C2H4-H2
{
Diff1	-1.646E+01	;
Diff2	4.329E+00	;
Diff3	-3.589E-01	;
Diff4	1.605E-02	;
}
C2H4-H
{
Diff1	-1.694E+01	;
Diff2	4.353E+00	;
Diff3	-3.147E-01	;
Diff4	1.210E-02	;
}
C2H4-O
{
Diff1	-1.800E+01	;
Diff2	4.493E+00	;
Diff3	-3.678E-01	;
Diff4	1.591E-02	;
}
C2H4-O2
{
Diff1	-1.902E+01	;
Diff2	4.694E+00	;
Diff3	-3.901E-01	;
Diff4	1.673E-02	;
}
C2H4-OH
{
Diff1	-1.799E+01	;
Diff2	4.483E+00	;
Diff3	-3.666E-01	;
Diff4	1.587E-02	;
}
C2H4-H2O
{
Diff1	-1.989E+01	;
Diff2	4.655E+00	;
Diff3	-3.287E-01	;
Diff4	1.186E-02	;
}
C2H4-HO2
{
Diff1	-1.903E+01	;
Diff2	4.693E+00	;
Diff3	-3.900E-01	;
Diff4	1.672E-02	;
}
C2H4-H2O2
{
Diff1	-1.903E+01	;
Diff2	4.693E+00	;
Diff3	-3.900E-01	;
Diff4	1.672E-02	;
}
C2H4-C
{
Diff1	-1.791E+01	;
Diff2	4.454E+00	;
Diff3	-3.651E-01	;
Diff4	1.589E-02	;
}
C2H4-CH
{
Diff1	-1.803E+01	;
Diff2	4.528E+00	;
Diff3	-3.721E-01	;
Diff4	1.609E-02	;
}
C2H4-CH2
{
Diff1	-1.957E+01	;
Diff2	4.894E+00	;
Diff3	-4.083E-01	;
Diff4	1.719E-02	;
}
C2H4-CH2(S)
{
Diff1	-1.957E+01	;
Diff2	4.894E+00	;
Diff3	-4.083E-01	;
Diff4	1.719E-02	;
}
C2H4-CH3
{
Diff1	-1.960E+01	;
Diff2	4.900E+00	;
Diff3	-4.095E-01	;
Diff4	1.726E-02	;
}
C2H4-CH4
{
Diff1	-1.957E+01	;
Diff2	4.891E+00	;
Diff3	-4.089E-01	;
Diff4	1.726E-02	;
}
C2H4-CO
{
Diff1	-1.879E+01	;
Diff2	4.613E+00	;
Diff3	-3.812E-01	;
Diff4	1.640E-02	;
}
C2H4-CO2
{
Diff1	-2.089E+01	;
Diff2	5.167E+00	;
Diff3	-4.306E-01	;
Diff4	1.764E-02	;
}
C2H4-HCO
{
Diff1	-2.091E+01	;
Diff2	4.973E+00	;
Diff3	-3.787E-01	;
Diff4	1.436E-02	;
}
C2H4-CH2O
{
Diff1	-2.092E+01	;
Diff2	4.973E+00	;
Diff3	-3.787E-01	;
Diff4	1.436E-02	;
}
C2H4-CH2OH
{
Diff1	-2.115E+01	;
Diff2	5.123E+00	;
Diff3	-4.061E-01	;
Diff4	1.585E-02	;
}
C2H4-CH3O
{
Diff1	-2.115E+01	;
Diff2	5.123E+00	;
Diff3	-4.061E-01	;
Diff4	1.585E-02	;
}
C2H4-CH3OH
{
Diff1	-2.096E+01	;
Diff2	4.994E+00	;
Diff3	-3.826E-01	;
Diff4	1.458E-02	;
}
C2H4-C2H
{
Diff1	-2.062E+01	;
Diff2	5.124E+00	;
Diff3	-4.302E-01	;
Diff4	1.783E-02	;
}
C2H4-C2H2
{
Diff1	-2.063E+01	;
Diff2	5.125E+00	;
Diff3	-4.304E-01	;
Diff4	1.784E-02	;
}
C2H4-C2H3
{
Diff1	-2.064E+01	;
Diff2	5.126E+00	;
Diff3	-4.305E-01	;
Diff4	1.784E-02	;
}
C2H4-C2H4
{
Diff1	-2.118E+01	;
Diff2	5.263E+00	;
Diff3	-4.399E-01	;
Diff4	1.792E-02	;
}
C2H5-H2
{
Diff1	-1.615E+01	;
Diff2	4.174E+00	;
Diff3	-3.383E-01	;
Diff4	1.514E-02	;
}
C2H5-H
{
Diff1	-1.738E+01	;
Diff2	4.516E+00	;
Diff3	-3.392E-01	;
Diff4	1.329E-02	;
}
C2H5-O
{
Diff1	-1.802E+01	;
Diff2	4.484E+00	;
Diff3	-3.688E-01	;
Diff4	1.605E-02	;
}
C2H5-O2
{
Diff1	-1.882E+01	;
Diff2	4.596E+00	;
Diff3	-3.791E-01	;
Diff4	1.632E-02	;
}
C2H5-OH
{
Diff1	-1.801E+01	;
Diff2	4.469E+00	;
Diff3	-3.669E-01	;
Diff4	1.597E-02	;
}
C2H5-H2O
{
Diff1	-2.010E+01	;
Diff2	4.741E+00	;
Diff3	-3.443E-01	;
Diff4	1.271E-02	;
}
C2H5-HO2
{
Diff1	-1.882E+01	;
Diff2	4.595E+00	;
Diff3	-3.790E-01	;
Diff4	1.632E-02	;
}
C2H5-H2O2
{
Diff1	-1.883E+01	;
Diff2	4.595E+00	;
Diff3	-3.790E-01	;
Diff4	1.632E-02	;
}
C2H5-C
{
Diff1	-1.792E+01	;
Diff2	4.443E+00	;
Diff3	-3.657E-01	;
Diff4	1.600E-02	;
}
C2H5-CH
{
Diff1	-1.809E+01	;
Diff2	4.537E+00	;
Diff3	-3.757E-01	;
Diff4	1.634E-02	;
}
C2H5-CH2
{
Diff1	-1.941E+01	;
Diff2	4.820E+00	;
Diff3	-4.008E-01	;
Diff4	1.695E-02	;
}
C2H5-CH2(S)
{
Diff1	-1.941E+01	;
Diff2	4.820E+00	;
Diff3	-4.008E-01	;
Diff4	1.695E-02	;
}
C2H5-CH3
{
Diff1	-1.944E+01	;
Diff2	4.823E+00	;
Diff3	-4.016E-01	;
Diff4	1.700E-02	;
}
C2H5-CH4
{
Diff1	-1.938E+01	;
Diff2	4.804E+00	;
Diff3	-3.995E-01	;
Diff4	1.693E-02	;
}
C2H5-CO
{